$# LS-DYNA Keyword file created by LS-PrePost(R) V4.9.9-14Oct2022 
$# Created on Jul-5-2023 (22:47:21)
*KEYWORD
*TITLE
$#                                                                         title
LS-DYNA keyword deck by LS-PrePost
*CONTROL_ENERGY
$#    hgen      rwen    slnten     rylen     irgen     maten     drlen     disen
         2         2         1         1         2         2         1         1
*CONTROL_HOURGLASS
$#     ihq        qh  
         2      0.05
*CONTROL_TERMINATION
$#  endtim    endcyc     dtmin    endeng    endmas     nosol     
2.00000E-4         0       0.0       0.01.000000E8         0
*CONTACT_2D_AUTOMATIC_SURFACE_TO_SURFACE_TITLE
$#     cid                                                                 title
         1                                                                      
$#   surfa     surfb     sfact      freq        fs        fd        dc         -
         1         2       1.0        50       0.0       0.0       0.0          
$#  tbirth    tdeath       soa       sob       nda       ndb       cof      init
       0.01.00000E20       1.0       1.0         0         0         0         0
$#      vc       vdc       ipf     slide    istiff   tiedgap    igapcl    tietyp
       0.0      10.0         0         0         0       0.0         0         0
$#  sldsoa    sldsob     tdpen     
       0.0       0.0       0.0
*SET_PART_LIST_TITLE
solid
$#     sid       da1       da2       da3       da4    solver      
         1       0.0       0.0       0.0       0.0MECH
$#    pid1      pid2      pid3      pid4      pid5      pid6      pid7      pid8
         3         0         0         0         0         0         0         0
*SET_PART_LIST_TITLE
stricker
$#     sid       da1       da2       da3       da4    solver      
         2       0.0       0.0       0.0       0.0MECH
$#    pid1      pid2      pid3      pid4      pid5      pid6      pid7      pid8
         4         0         0         0         0         0         0         0
*NODE
$#   nid               x               y               z      tc      rc  
       1             0.0             0.0             0.0       0       0
       2             0.0             0.4             0.0       0       0
       3             0.0            0.01             0.0       0       0
       4             0.0            0.02             0.0       0       0
       5             0.0            0.03             0.0       0       0
       6             0.0            0.04             0.0       0       0
       7             0.0            0.05             0.0       0       0
       8             0.0            0.06             0.0       0       0
       9             0.0            0.07             0.0       0       0
      10             0.0            0.08             0.0       0       0
      11             0.0            0.09             0.0       0       0
      12             0.0             0.1             0.0       0       0
      13             0.0            0.11             0.0       0       0
      14             0.0            0.12             0.0       0       0
      15             0.0            0.13             0.0       0       0
      16             0.0            0.14             0.0       0       0
      17             0.0            0.15             0.0       0       0
      18             0.0            0.16             0.0       0       0
      19             0.0            0.17             0.0       0       0
      20             0.0            0.18             0.0       0       0
$ ... 4352 like lines cut
*PART
$#                                                                         title
LSHELL3
$#     pid     secid       mid     eosid      hgid      grav    adpopt      tmid
         3         1         1         0         0         0         0         0
*SECTION_SHELL_TITLE
solid
$#   secid    elform      shrf       nip     propt   qr/irid     icomp     setyp
         1        13       1.0         4       3.0         0         0         1
$#      t1        t2        t3        t4      nloc     marea      idof    edgset
       0.1       0.1       0.1       0.1       0.0       0.0       0.0         0
*MAT_ELASTIC_TITLE
solid
$#     mid        ro         e        pr        da        db  not used        
         1    7850.02.00000E11      0.29       0.0       0.0       0.0
*PART
$#                                                                         title
LSHELL4
$#     pid     secid       mid     eosid      hgid      grav    adpopt      tmid
         4         1         2         0         0         0         0         0
*MAT_RIGID_TITLE
stricker
$#     mid        ro         e        pr         n    couple         m     alias
         2    7850.02.00000E11      0.29       0.0       0.0       0.0          
$#     cmo      con1      con2    
       1.0         1         3
$#lco or a1        a2        a3        v1        v2        v3  
       0.0                                                  
*DATABASE_ELOUT
$#      dt    binary      lcur     ioopt   option1   option2   option3   option4
5.00000E-7         2         0         1         0         0         0         0
*DATABASE_GLSTAT
$#      dt    binary      lcur     ioopt     
5.00000E-7         2         0         1
*DATABASE_MATSUM
$#      dt    binary      lcur     ioopt     
5.00000E-7         2         0         1
*DATABASE_NCFORC
$#      dt    binary      lcur     ioopt     
5.00000E-7         2         0         1
*DATABASE_NODOUT
$#      dt    binary      lcur     ioopt   option1   option2       
5.00000E-7         2         0         1       0.0         0
*DATABASE_BINARY_D3PLOT
$#      dt      lcdt      beam     npltc    psetid      
1.00000E-6         0         0         0         0
$#   ioopt      rate    cutoff    window      type      pset    
         0                                       0         0
*DATABASE_BINARY_INTFOR
$#      dt      lcdt      beam     npltc    psetid      
1.00000E-6         0         0         0         0
$#   ioopt     
         0
*DATABASE_EXTENT_BINARY
$#   neiph     neips    maxint    strflg    sigflg    epsflg    rltflg    engflg
         0         0        -4         0         1         1         1         1
$#  cmpflg    ieverp    beamip     dcomp      shge     stssz    n3thdt   ialemat
         0         0         0         1         1         1         2         1
$# nintsld   pkp_sen      sclp     hydro     msscl     therm    intout    nodout
         0         0       1.0         0         0         0                    
$#    dtdt    resplt     neipb   quadsld    cubsld   deleres       
         0         0                   0         0         0
*DATABASE_HISTORY_NODE_SET
$#     id1       id2       id3       id4       id5       id6       id7       id8
         1         0         0         0         0         0         0         0
*DATABASE_HISTORY_SHELL_SET
$#     id1       id2       id3       id4       id5       id6       id7       id8
         1         0         0         0         0         0         0         0
*ELEMENT_SHELL
$#   eid     pid      n1      n2      n3      n4      n5      n6      n7      n8
       1       3       3       1      43     281       0       0       0       0
       2       3     141      42     143     282       0       0       0       0
       3       3     140     141     282     283       0       0       0       0
       4       3     182       2      41     284       0       0       0       0
       5       3      43      44     285     281       0       0       0       0
       6       3       4       3     281     286       0       0       0       0
       7       3     143     144     287     282       0       0       0       0
       8       3     139     140     283     288       0       0       0       0
       9       3      41      40     289     284       0       0       0       0
      10       3      40      39     290     289       0       0       0       0
      11       3      39      38     291     290       0       0       0       0
      12       3     183     182     284     292       0       0       0       0
      13       3      44      45     293     285       0       0       0       0
      14       3       5       4     286     294       0       0       0       0
      15       3     144     145     295     287       0       0       0       0
      16       3     184     183     292     296       0       0       0       0
      17       3      45      46     297     293       0       0       0       0
      18       3       6       5     294     298       0       0       0       0
      19       3     145     146     299     295       0       0       0       0
      20       3     185     184     296     300       0       0       0       0
$ ... 4180 like lines cut
*INITIAL_VELOCITY_RIGID_BODY
$#     pid        vx        vy        vz       vxr       vyr       vzr      icid
         4       0.0    -100.0       0.0       0.0       0.0       0.0         0
*SET_NODE_LIST_TITLE
all nodes
$#     sid       da1       da2       da3       da4    solver       its         -
         1       0.0       0.0       0.0       0.0MECH      1                   
$#    nid1      nid2      nid3      nid4      nid5      nid6      nid7      nid8
      4142      4143      4144      4145      4146      4147      4148      4149
      4150      4151      4152      4153      4154      4155      4156      4157
      4158      4159      4160      4161      4162      4163      4164      4165
      4166      4167      4168      4169      4170      4171      4172      4173
      4174      4175      4176      4177      4178      4179      4180      4181
      4182      4183      4184      4185      4186      4187      4188      4189
      4190      4191      4192      4193      4194      4195      4196      4197
      4198      4199      4200      4201      4202      4203      4204      4205
      4206      4207      4208      4209      4210      4211      4212      4213
      4214      4215      4216      4217      4218      4219      4220      4221
      4222      4223      4224      4225      4226      4227      4228      4229
      4230      4231      4232      4233      4234      4235      4236      4237
      4238      4239      4240      4241      4242      4243      4244      4245
      4246      4247      4248      4249      4250      4251      4252      4253
      4254      4255      4256      4257      4258      4259      4260      4261
      4262      4263      4264      4265      4266      4267      4268      4269
      4270      4271      4272      4273      4274      4275      4276      4277
      4278      4279      4280      4281      4282      4283      4284      4285
      4286      4287      4288      4289      4290      4291      4292      4293
      4294      4295      4296      4297      4298      4299      4300      4301
$ ... 527 like lines cut
*SET_SEGMENT
$#     sid       da1       da2       da3       da4    solver       its         -
         1       0.0       0.0       0.0       0.0MECH               0          
$#      n1        n2        n3        n4        a1        a2        a3        a4
      4142      4154      4154      4154       0.0       0.0       0.0       0.0
      4172      4153      4153      4153       0.0       0.0       0.0       0.0
      4154      4155      4155      4155       0.0       0.0       0.0       0.0
      4155      4156      4156      4156       0.0       0.0       0.0       0.0
      4156      4157      4157      4157       0.0       0.0       0.0       0.0
      4157      4158      4158      4158       0.0       0.0       0.0       0.0
      4158      4159      4159      4159       0.0       0.0       0.0       0.0
      4159      4160      4160      4160       0.0       0.0       0.0       0.0
      4160      4161      4161      4161       0.0       0.0       0.0       0.0
      4161      4162      4162      4162       0.0       0.0       0.0       0.0
      4162      4163      4163      4163       0.0       0.0       0.0       0.0
      4163      4164      4164      4164       0.0       0.0       0.0       0.0
      4164      4165      4165      4165       0.0       0.0       0.0       0.0
      4165      4166      4166      4166       0.0       0.0       0.0       0.0
      4166      4167      4167      4167       0.0       0.0       0.0       0.0
      4167      4168      4168      4168       0.0       0.0       0.0       0.0
      4168      4169      4169      4169       0.0       0.0       0.0       0.0
      4169      4170      4170      4170       0.0       0.0       0.0       0.0
      4170      4171      4171      4171       0.0       0.0       0.0       0.0
      4171      4172      4172      4172       0.0       0.0       0.0       0.0
*SET_SEGMENT_TITLE
solid
$#     sid       da1       da2       da3       da4    solver       its         -
         2       0.0       0.0       0.0       0.0MECH               0          
$#      n1        n2        n3        n4        a1        a2        a3        a4
       182         2         2         2       0.0       0.0       0.0       0.0
       142       280       280       280       0.0       0.0       0.0       0.0
       183       182       182       182       0.0       0.0       0.0       0.0
       184       183       183       183       0.0       0.0       0.0       0.0
       185       184       184       184       0.0       0.0       0.0       0.0
       186       185       185       185       0.0       0.0       0.0       0.0
       187       186       186       186       0.0       0.0       0.0       0.0
       188       187       187       187       0.0       0.0       0.0       0.0
       189       188       188       188       0.0       0.0       0.0       0.0
       190       189       189       189       0.0       0.0       0.0       0.0
       191       190       190       190       0.0       0.0       0.0       0.0
       192       191       191       191       0.0       0.0       0.0       0.0
       193       192       192       192       0.0       0.0       0.0       0.0
       194       193       193       193       0.0       0.0       0.0       0.0
       195       194       194       194       0.0       0.0       0.0       0.0
       196       195       195       195       0.0       0.0       0.0       0.0
       197       196       196       196       0.0       0.0       0.0       0.0
       198       197       197       197       0.0       0.0       0.0       0.0
       199       198       198       198       0.0       0.0       0.0       0.0
       200       199       199       199       0.0       0.0       0.0       0.0
$ ... 80 like lines cut
*SET_SEGMENT_TITLE
striker
$#     sid       da1       da2       da3       da4    solver       its         -
         3       0.0       0.0       0.0       0.0MECH               0          
$#      n1        n2        n3        n4        a1        a2        a3        a4
      4142      4154      4154      4154       0.0       0.0       0.0       0.0
      4172      4153      4153      4153       0.0       0.0       0.0       0.0
      4154      4155      4155      4155       0.0       0.0       0.0       0.0
      4155      4156      4156      4156       0.0       0.0       0.0       0.0
      4156      4157      4157      4157       0.0       0.0       0.0       0.0
      4157      4158      4158      4158       0.0       0.0       0.0       0.0
      4158      4159      4159      4159       0.0       0.0       0.0       0.0
      4159      4160      4160      4160       0.0       0.0       0.0       0.0
      4160      4161      4161      4161       0.0       0.0       0.0       0.0
      4161      4162      4162      4162       0.0       0.0       0.0       0.0
      4162      4163      4163      4163       0.0       0.0       0.0       0.0
      4163      4164      4164      4164       0.0       0.0       0.0       0.0
      4164      4165      4165      4165       0.0       0.0       0.0       0.0
      4165      4166      4166      4166       0.0       0.0       0.0       0.0
      4166      4167      4167      4167       0.0       0.0       0.0       0.0
      4167      4168      4168      4168       0.0       0.0       0.0       0.0
      4168      4169      4169      4169       0.0       0.0       0.0       0.0
      4169      4170      4170      4170       0.0       0.0       0.0       0.0
      4170      4171      4171      4171       0.0       0.0       0.0       0.0
      4171      4172      4172      4172       0.0       0.0       0.0       0.0
*SET_SHELL_LIST
$#     sid       da1       da2       da3       da4   
         1       0.0       0.0       0.0       0.0
$#    eid1      eid2      eid3      eid4      eid5      eid6      eid7      eid8
      4001      4002      4003      4004      4005      4006      4007      4008
      4009      4010      4011      4012      4013      4014      4015      4016
      4017      4018      4019      4020      4021      4022      4023      4024
      4025      4026      4027      4028      4029      4030      4031      4032
      4033      4034      4035      4036      4037      4038      4039      4040
      4041      4042      4043      4044      4045      4046      4047      4048
      4049      4050      4051      4052      4053      4054      4055      4056
      4057      4058      4059      4060      4061      4062      4063      4064
      4065      4066      4067      4068      4069      4070      4071      4072
      4073      4074      4075      4076      4077      4078      4079      4080
      4081      4082      4083      4084      4085      4086      4087      4088
      4089      4090      4091      4092      4093      4094      4095      4096
      4097      4098      4099      4100      4101      4102      4103      4104
      4105      4106      4107      4108      4109      4110      4111      4112
      4113      4114      4115      4116      4117      4118      4119      4120
      4121      4122      4123      4124      4125      4126      4127      4128
      4129      4130      4131      4132      4133      4134      4135      4136
      4137      4138      4139      4140      4141      4142      4143      4144
      4145      4146      4147      4148      4149      4150      4151      4152
      4153      4154      4155      4156      4157      4158      4159      4160
$ ... 505 like lines cut
*COMMENT  *DEFORMABLE_TO_RIGID_AUTOMATIC
$#   swset      code     time1     time2     time3     entno     relsw    paired
         1         2       0.01.00000E20       0.0         1         2         1
$#    nrbf      ncsf       rwf     dtmax       d2r       r2d    offset
         0         0         0       0.0         1         0         0
$#     pid       lrb     ptype
         3         0PART
*COMMENT  *DEFORMABLE_TO_RIGID_AUTOMATIC
$#   swset      code     time1     time2     time3     entno     relsw    paired
         2         4       0.01.00000E20       0.0         1         1        -1
$#    nrbf      ncsf       rwf     dtmax       d2r       r2d    offset
         0         0         0       0.0         1         1         0
$#     pid       lrb     ptype
         3         0PART
$#     pid     ptype
         0
*END
